@<TRIPOS>MOLECULE
13U
   65    67     0     0     0
SMALL
NO_CHARGES

@<TRIPOS>ATOM
      1 C1         -1.6670    0.6990   -0.1850 C.2       1 13U_ideal         0.0000
      2 O1         -1.0040   -0.2870    0.0570 O.2       1 13U_ideal         0.0000
      3 C2         -3.1690    0.5990   -0.2550 C.3       1 13U_ideal         0.0000
      4 N1         -3.5800   -0.7870    0.0040 N.3       1 13U_ideal         0.0000
      5 C3         -5.0410   -0.9230   -0.0570 C.3       1 13U_ideal         0.0000
      6 C4         -5.4770   -2.1230    0.7860 C.3       1 13U_ideal         0.0000
      7 C5         -6.5540   -1.6840    1.7800 C.3       1 13U_ideal         0.0000
      8 C6         -7.8850   -1.5120    1.0460 C.3       1 13U_ideal         0.0000
      9 C7         -7.8620   -0.2070    0.2480 C.3       1 13U_ideal         0.0000
     10 C8         -7.8820   -0.5230   -1.2490 C.3       1 13U_ideal         0.0000
     11 C9         -6.9080   -1.6660   -1.5410 C.3       1 13U_ideal         0.0000
     12 C10        -5.4740   -1.1350   -1.5090 C.3       1 13U_ideal         0.0000
     13 N2         -1.0600    1.8850   -0.3910 N.am      1 13U_ideal         0.0000
     14 C11         0.3970    2.1070   -0.4450 C.3       1 13U_ideal         0.0000
     15 C12         1.0990    1.2280    0.5570 C.2       1 13U_ideal         0.0000
     16 O2          0.5300    0.8960    1.5760 O.2       1 13U_ideal         0.0000
     17 C13         0.5840    3.6000   -0.0780 C.3       1 13U_ideal         0.0000
     18 C14        -0.6470    4.2470   -0.7660 C.3       1 13U_ideal         0.0000
     19 C15        -1.7410    3.1710   -0.6000 C.3       1 13U_ideal         0.0000
     20 N3          2.3570    0.8070    0.3200 N.am      1 13U_ideal         0.0000
     21 C16         3.0370   -0.0520    1.2920 C.3       1 13U_ideal         0.0000
     22 C17         4.4210   -0.3790    0.7920 C.ar      1 13U_ideal         0.0000
     23 C18         4.6240   -1.5030    0.0110 C.ar      1 13U_ideal         0.0000
     24 C19         5.8880   -1.8030   -0.4550 C.ar      1 13U_ideal         0.0000
     25 C20         6.9630   -0.9780   -0.1270 C.ar      1 13U_ideal         0.0000
     26 C21         8.3230   -1.2990   -0.6190 C.2       1 13U_ideal         0.0000
     27 N4          9.3250   -0.5270   -0.3110 N.2       1 13U_ideal         0.0000
     28 N5          8.5270   -2.4140   -1.4010 N.pl3     1 13U_ideal         0.0000
     29 C22         6.7530    0.1500    0.6650 C.ar      1 13U_ideal         0.0000
     30 C23         5.4840    0.4430    1.1200 C.ar      1 13U_ideal         0.0000
     31 H1         -3.6120    1.2560    0.4930 H         1 13U_ideal         0.0000
     32 H2         -3.5070    0.8990   -1.2470 H         1 13U_ideal         0.0000
     33 H3         -3.1300   -1.4230   -0.6380 H         1 13U_ideal         0.0000
     34 H4         -5.5060   -0.0180    0.3320 H         1 13U_ideal         0.0000
     35 H5         -5.8790   -2.8980    0.1340 H         1 13U_ideal         0.0000
     36 H6         -4.6180   -2.5160    1.3300 H         1 13U_ideal         0.0000
     37 H7         -6.6620   -2.4410    2.5560 H         1 13U_ideal         0.0000
     38 H8         -6.2640   -0.7370    2.2350 H         1 13U_ideal         0.0000
     39 H9         -8.0360   -2.3510    0.3660 H         1 13U_ideal         0.0000
     40 H10        -8.6980   -1.4800    1.7710 H         1 13U_ideal         0.0000
     41 H11        -8.7360    0.3910    0.5040 H         1 13U_ideal         0.0000
     42 H12        -6.9570    0.3510    0.4890 H         1 13U_ideal         0.0000
     43 H13        -8.8890   -0.8190   -1.5440 H         1 13U_ideal         0.0000
     44 H14        -7.5840    0.3620   -1.8110 H         1 13U_ideal         0.0000
     45 H15        -7.0240   -2.4440   -0.7870 H         1 13U_ideal         0.0000
     46 H16        -7.1200   -2.0810   -2.5270 H         1 13U_ideal         0.0000
     47 H17        -5.4250   -0.1860   -2.0440 H         1 13U_ideal         0.0000
     48 H18        -4.8080   -1.8550   -1.9850 H         1 13U_ideal         0.0000
     49 H19         0.7740    1.9130   -1.4490 H         1 13U_ideal         0.0000
     50 H20         0.5490    3.7440    1.0020 H         1 13U_ideal         0.0000
     51 H21         1.5130    3.9910   -0.4930 H         1 13U_ideal         0.0000
     52 H22        -0.9320    5.1690   -0.2590 H         1 13U_ideal         0.0000
     53 H23        -0.4460    4.4330   -1.8210 H         1 13U_ideal         0.0000
     54 H24        -2.3630    3.4060    0.2640 H         1 13U_ideal         0.0000
     55 H25        -2.3540    3.1240   -1.4990 H         1 13U_ideal         0.0000
     56 H26         2.8120    1.0720   -0.4950 H         1 13U_ideal         0.0000
     57 H27         3.1090    0.4660    2.2480 H         1 13U_ideal         0.0000
     58 H28         2.4710   -0.9750    1.4210 H         1 13U_ideal         0.0000
     59 H29         3.7910   -2.1430   -0.2390 H         1 13U_ideal         0.0000
     60 H30         6.0440   -2.6780   -1.0690 H         1 13U_ideal         0.0000
     61 H31        10.2160   -0.7370   -0.6330 H         1 13U_ideal         0.0000
     62 H32         7.7800   -2.9890   -1.6310 H         1 13U_ideal         0.0000
     63 H33         9.4180   -2.6240   -1.7230 H         1 13U_ideal         0.0000
     64 H34         7.5820    0.7930    0.9220 H         1 13U_ideal         0.0000
     65 H35         5.3200    1.3160    1.7340 H         1 13U_ideal         0.0000
@<TRIPOS>BOND
     1   15   16 2
     2   15   20 am
     3   14   15 1
     4   20   21 1
     5   21   22 1
     6   22   30 ar
     7   22   23 ar
     8   29   30 ar
     9   25   29 ar
    10   25   26 1
    11   24   25 ar
    12   26   27 2
    13   26   28 1
    14   23   24 ar
    15   14   17 1
    16   13   14 1
    17   17   18 1
    18   18   19 1
    19   13   19 1
    20    1   13 am
    21    1    2 2
    22    1    3 1
    23    3    4 1
    24    4    5 1
    25    5    6 1
    26    5   12 1
    27    6    7 1
    28    7    8 1
    29    8    9 1
    30    9   10 1
    31   10   11 1
    32   11   12 1
    33   20   56 1
    34   21   57 1
    35   21   58 1
    36   30   65 1
    37   29   64 1
    38   27   61 1
    39   28   62 1
    40   28   63 1
    41   24   60 1
    42   23   59 1
    43   14   49 1
    44   17   50 1
    45   17   51 1
    46   18   52 1
    47   18   53 1
    48   19   54 1
    49   19   55 1
    50    3   31 1
    51    3   32 1
    52    4   33 1
    53    5   34 1
    54    6   35 1
    55    6   36 1
    56    7   37 1
    57    7   38 1
    58    8   39 1
    59    8   40 1
    60    9   41 1
    61    9   42 1
    62   10   43 1
    63   10   44 1
    64   11   45 1
    65   11   46 1
    66   12   47 1
    67   12   48 1
