13U
     RDKit          3D

 68 70  0  0  0  0  0  0  0  0999 V2000
   -1.4138    0.9867   -1.0481 C   0  0  0  0  0  0  0  0  0  0  0  0
   -0.6316    0.0313   -1.0033 O   0  0  0  0  0  0  0  0  0  0  0  0
   -2.9366    0.8117   -0.8984 C   0  0  0  0  0  0  0  0  0  0  0  0
   -3.2985   -0.6147   -0.9861 N   0  0  0  0  0  0  0  0  0  0  0  0
   -4.6223   -0.9258   -0.4068 C   0  0  0  0  0  0  0  0  0  0  0  0
   -4.7766   -2.4632   -0.3644 C   0  0  0  0  0  0  0  0  0  0  0  0
   -5.3986   -3.0113    0.9288 C   0  0  0  0  0  0  0  0  0  0  0  0
   -6.8795   -2.7185    1.1777 C   0  0  0  0  0  0  0  0  0  0  0  0
   -7.1951   -1.2541    1.4829 C   0  0  0  0  0  0  0  0  0  0  0  0
   -7.7784   -0.4600    0.3145 C   0  0  0  0  0  0  0  0  0  0  0  0
   -7.1642   -0.6862   -1.0629 C   0  0  0  0  0  0  0  0  0  0  0  0
   -5.7168   -0.2293   -1.2431 C   0  0  0  0  0  0  0  0  0  0  0  0
   -0.9498    2.2781   -1.1776 N   0  0  0  0  0  0  0  0  0  0  0  0
    0.4853    2.5531   -1.2471 C   0  0  2  0  0  0  0  0  0  0  0  0
    1.1341    2.2414    0.1173 C   0  0  0  0  0  0  0  0  0  0  0  0
    0.7978    2.7993    1.1620 O   0  0  0  0  0  0  0  0  0  0  0  0
    0.5817    4.0580   -1.5411 C   0  0  0  0  0  0  0  0  0  0  0  0
   -0.8110    4.4431   -2.0299 C   0  0  0  0  0  0  0  0  0  0  0  0
   -1.7259    3.5021   -1.2655 C   0  0  0  0  0  0  0  0  0  0  0  0
    2.0972    1.2538    0.0683 N   0  0  0  0  0  0  0  0  0  0  0  0
    2.6668    0.7467    1.2930 C   0  0  0  0  0  0  0  0  0  0  0  0
    3.9729    0.0440    1.0327 C   0  0  0  0  0  0  0  0  0  0  0  0
    4.0027   -1.3250    0.7214 C   0  0  0  0  0  0  0  0  0  0  0  0
    5.2180   -1.9959    0.4966 C   0  0  0  0  0  0  0  0  0  0  0  0
    6.4124   -1.2573    0.5607 C   0  0  0  0  0  0  0  0  0  0  0  0
    7.7378   -1.8881    0.3341 C   0  0  0  0  0  0  0  0  0  0  0  0
    8.6902   -1.7958    1.2041 N   0  0  0  0  0  0  0  0  0  0  0  0
    7.9910   -2.5652   -0.8193 N   0  0  0  0  0  0  0  0  0  0  0  0
    6.3914    0.1127    0.8506 C   0  0  0  0  0  0  0  0  0  0  0  0
    5.1769    0.7588    1.0800 C   0  0  0  0  0  0  0  0  0  0  0  0
    5.2028   -3.4675    0.2046 C   0  0  0  0  0  0  0  0  0  0  0  0
   -3.4381    1.3482   -1.7064 H   0  0  0  0  0  0  0  0  0  0  0  0
   -3.2151    1.2352    0.0724 H   0  0  0  0  0  0  0  0  0  0  0  0
   -2.5677   -1.1437   -0.5007 H   0  0  0  0  0  0  0  0  0  0  0  0
   -4.6272   -0.5377    0.6162 H   0  0  0  0  0  0  0  0  0  0  0  0
   -5.3130   -2.8393   -1.2447 H   0  0  0  0  0  0  0  0  0  0  0  0
   -3.7814   -2.9327   -0.4194 H   0  0  0  0  0  0  0  0  0  0  0  0
   -5.2816   -4.1024    0.9031 H   0  0  0  0  0  0  0  0  0  0  0  0
   -4.8101   -2.6682    1.7901 H   0  0  0  0  0  0  0  0  0  0  0  0
   -7.4962   -3.1082    0.3597 H   0  0  0  0  0  0  0  0  0  0  0  0
   -7.1651   -3.3041    2.0631 H   0  0  0  0  0  0  0  0  0  0  0  0
   -7.9425   -1.2280    2.2879 H   0  0  0  0  0  0  0  0  0  0  0  0
   -6.3222   -0.7424    1.9009 H   0  0  0  0  0  0  0  0  0  0  0  0
   -8.8449   -0.7145    0.2376 H   0  0  0  0  0  0  0  0  0  0  0  0
   -7.7465    0.6079    0.5641 H   0  0  0  0  0  0  0  0  0  0  0  0
   -7.7691   -0.1137   -1.7799 H   0  0  0  0  0  0  0  0  0  0  0  0
   -7.2792   -1.7277   -1.3767 H   0  0  0  0  0  0  0  0  0  0  0  0
   -5.4790   -0.3606   -2.3098 H   0  0  0  0  0  0  0  0  0  0  0  0
   -5.6801    0.8542   -1.0615 H   0  0  0  0  0  0  0  0  0  0  0  0
    0.9260    1.9519   -2.0515 H   0  0  0  0  0  0  0  0  0  0  0  0
    0.8333    4.6381   -0.6444 H   0  0  0  0  0  0  0  0  0  0  0  0
    1.3488    4.2752   -2.2919 H   0  0  0  0  0  0  0  0  0  0  0  0
   -1.0461    5.4971   -1.8572 H   0  0  0  0  0  0  0  0  0  0  0  0
   -0.8869    4.2464   -3.1056 H   0  0  0  0  0  0  0  0  0  0  0  0
   -2.6840    3.3565   -1.7675 H   0  0  0  0  0  0  0  0  0  0  0  0
   -1.9048    3.8607   -0.2458 H   0  0  0  0  0  0  0  0  0  0  0  0
    2.0128    0.5916   -0.6963 H   0  0  0  0  0  0  0  0  0  0  0  0
    1.9410    0.0629    1.7482 H   0  0  0  0  0  0  0  0  0  0  0  0
    2.8138    1.5683    2.0035 H   0  0  0  0  0  0  0  0  0  0  0  0
    3.0649   -1.8784    0.6716 H   0  0  0  0  0  0  0  0  0  0  0  0
    8.3714   -1.2807    2.0343 H   0  0  0  0  0  0  0  0  0  0  0  0
    7.5316   -2.2174   -1.6524 H   0  0  0  0  0  0  0  0  0  0  0  0
    8.9861   -2.7199   -0.9449 H   0  0  0  0  0  0  0  0  0  0  0  0
    7.3191    0.6793    0.8862 H   0  0  0  0  0  0  0  0  0  0  0  0
    5.1729    1.8245    1.3009 H   0  0  0  0  0  0  0  0  0  0  0  0
    5.9621   -3.9927    0.7939 H   0  0  0  0  0  0  0  0  0  0  0  0
    4.2352   -3.9167    0.4652 H   0  0  0  0  0  0  0  0  0  0  0  0
    5.3787   -3.6426   -0.8608 H   0  0  0  0  0  0  0  0  0  0  0  0
 15 16  2  0
 15 20  1  0
 14 15  1  0
 20 21  1  0
 21 22  1  0
 22 30  1  0
 22 23  2  0
 29 30  2  0
 25 29  1  0
 25 26  1  0
 24 25  2  0
 26 27  2  0
 26 28  1  0
 23 24  1  0
 14 17  1  0
 13 14  1  0
 17 18  1  0
 18 19  1  0
 13 19  1  0
  1 13  1  0
  1  2  2  0
  1  3  1  0
  3  4  1  0
  4  5  1  0
  5  6  1  0
  5 12  1  0
  6  7  1  0
  7  8  1  0
  8  9  1  0
  9 10  1  0
 10 11  1  0
 11 12  1  0
 24 31  1  0
  3 32  1  0
  3 33  1  0
  4 34  1  0
  5 35  1  0
  6 36  1  0
  6 37  1  0
  7 38  1  0
  7 39  1  0
  8 40  1  0
  8 41  1  0
  9 42  1  0
  9 43  1  0
 10 44  1  0
 10 45  1  0
 11 46  1  0
 11 47  1  0
 12 48  1  0
 12 49  1  0
 14 50  1  6
 17 51  1  0
 17 52  1  0
 18 53  1  0
 18 54  1  0
 19 55  1  0
 19 56  1  0
 20 57  1  0
 21 58  1  0
 21 59  1  0
 23 60  1  0
 27 61  1  0
 28 62  1  0
 28 63  1  0
 29 64  1  0
 30 65  1  0
 31 66  1  0
 31 67  1  0
 31 68  1  0
M  END
