13U
     RDKit          3D

 64 66  0  0  0  0  0  0  0  0999 V2000
   -0.8087    0.7389   -1.4295 C   0  0  0  0  0  0  0  0  0  0  0  0
    0.3362    0.3319   -1.6476 O   0  0  0  0  0  0  0  0  0  0  0  0
   -2.0382   -0.0543   -1.8986 C   0  0  0  0  0  0  0  0  0  0  0  0
   -2.7360   -0.6199   -0.7358 N   0  0  0  0  0  0  0  0  0  0  0  0
   -4.0168   -1.2620   -1.0698 C   0  0  0  0  0  0  0  0  0  0  0  0
   -4.3716   -2.2431    0.0667 C   0  0  0  0  0  0  0  0  0  0  0  0
   -4.8133   -1.6410    1.4043 C   0  0  0  0  0  0  0  0  0  0  0  0
   -6.3293   -1.4774    1.5741 C   0  0  0  0  0  0  0  0  0  0  0  0
   -6.8904   -0.1543    1.0621 C   0  0  0  0  0  0  0  0  0  0  0  0
   -7.4356   -0.1775   -0.3667 C   0  0  0  0  0  0  0  0  0  0  0  0
   -6.5204   -0.7441   -1.4509 C   0  0  0  0  0  0  0  0  0  0  0  0
   -5.0903   -0.2049   -1.3959 C   0  0  0  0  0  0  0  0  0  0  0  0
   -1.0294    1.9122   -0.7249 N   0  0  0  0  0  0  0  0  0  0  0  0
    0.0892    2.7242   -0.2134 C   0  0  2  0  0  0  0  0  0  0  0  0
    0.8037    2.0354    0.9736 C   0  0  0  0  0  0  0  0  0  0  0  0
    0.6335    2.3562    2.1469 O   0  0  0  0  0  0  0  0  0  0  0  0
   -0.5687    4.0456    0.2147 C   0  0  0  0  0  0  0  0  0  0  0  0
   -1.8372    4.1081   -0.6222 C   0  0  0  0  0  0  0  0  0  0  0  0
   -2.2782    2.6563   -0.6707 C   0  0  0  0  0  0  0  0  0  0  0  0
    1.6471    1.0117    0.5979 N   0  0  0  0  0  0  0  0  0  0  0  0
    2.2234    0.1203    1.5731 C   0  0  0  0  0  0  0  0  0  0  0  0
    3.5274   -0.4461    1.0904 C   0  0  0  0  0  0  0  0  0  0  0  0
    3.5659   -1.4827    0.1594 C   0  0  0  0  0  0  0  0  0  0  0  0
    4.7051   -2.0416   -0.3147 N   0  0  0  0  0  0  0  0  0  0  0  0
    5.8708   -1.5254    0.1675 C   0  0  0  0  0  0  0  0  0  0  0  0
    7.1192   -2.1683   -0.3693 C   0  0  0  0  0  0  0  0  0  0  0  0
    8.2934   -1.7293   -0.0382 N   0  0  0  0  0  0  0  0  0  0  0  0
    6.9963   -3.2227   -1.2328 N   0  0  0  0  0  0  0  0  0  0  0  0
    5.9445   -0.4831    1.0808 C   0  0  0  0  0  0  0  0  0  0  0  0
    4.7506    0.0641    1.5457 C   0  0  0  0  0  0  0  0  0  0  0  0
    8.9972   -2.3243   -0.4842 H   0  0  0  0  0  0  0  0  0  0  0  0
   -1.6811   -0.8670   -2.5420 H   0  0  0  0  0  0  0  0  0  0  0  0
   -2.6663    0.5924   -2.5145 H   0  0  0  0  0  0  0  0  0  0  0  0
   -2.8686    0.0910   -0.0176 H   0  0  0  0  0  0  0  0  0  0  0  0
   -3.8685   -1.8827   -1.9648 H   0  0  0  0  0  0  0  0  0  0  0  0
   -3.4763   -2.8528    0.2623 H   0  0  0  0  0  0  0  0  0  0  0  0
   -5.1174   -2.9692   -0.2805 H   0  0  0  0  0  0  0  0  0  0  0  0
   -4.2852   -0.7072    1.6268 H   0  0  0  0  0  0  0  0  0  0  0  0
   -4.4951   -2.3514    2.1803 H   0  0  0  0  0  0  0  0  0  0  0  0
   -6.5232   -1.5065    2.6552 H   0  0  0  0  0  0  0  0  0  0  0  0
   -6.8712   -2.3295    1.1502 H   0  0  0  0  0  0  0  0  0  0  0  0
   -6.1515    0.6449    1.1784 H   0  0  0  0  0  0  0  0  0  0  0  0
   -7.7261    0.1321    1.7117 H   0  0  0  0  0  0  0  0  0  0  0  0
   -8.3757   -0.7430   -0.3820 H   0  0  0  0  0  0  0  0  0  0  0  0
   -7.7010    0.8510   -0.6403 H   0  0  0  0  0  0  0  0  0  0  0  0
   -6.5482   -1.8386   -1.4275 H   0  0  0  0  0  0  0  0  0  0  0  0
   -6.9603   -0.4727   -2.4214 H   0  0  0  0  0  0  0  0  0  0  0  0
   -4.8635    0.2137   -2.3847 H   0  0  0  0  0  0  0  0  0  0  0  0
   -5.0177    0.6475   -0.7100 H   0  0  0  0  0  0  0  0  0  0  0  0
    0.8053    2.8914   -1.0263 H   0  0  0  0  0  0  0  0  0  0  0  0
   -0.8431    4.0524    1.2755 H   0  0  0  0  0  0  0  0  0  0  0  0
    0.0842    4.9054    0.0415 H   0  0  0  0  0  0  0  0  0  0  0  0
   -1.5921    4.4644   -1.6298 H   0  0  0  0  0  0  0  0  0  0  0  0
   -2.5966    4.7692   -0.1959 H   0  0  0  0  0  0  0  0  0  0  0  0
   -2.7967    2.3700    0.2499 H   0  0  0  0  0  0  0  0  0  0  0  0
   -2.9258    2.4572   -1.5269 H   0  0  0  0  0  0  0  0  0  0  0  0
    1.4985    0.6445   -0.3447 H   0  0  0  0  0  0  0  0  0  0  0  0
    1.5017   -0.6862    1.7556 H   0  0  0  0  0  0  0  0  0  0  0  0
    2.3618    0.6440    2.5269 H   0  0  0  0  0  0  0  0  0  0  0  0
    2.6486   -1.9089   -0.2437 H   0  0  0  0  0  0  0  0  0  0  0  0
    6.0503   -3.3412   -1.6037 H   0  0  0  0  0  0  0  0  0  0  0  0
    7.7348   -3.3713   -1.9068 H   0  0  0  0  0  0  0  0  0  0  0  0
    6.9063   -0.1072    1.4212 H   0  0  0  0  0  0  0  0  0  0  0  0
    4.7813    0.8827    2.2634 H   0  0  0  0  0  0  0  0  0  0  0  0
 15 16  2  0
 15 20  1  0
 14 15  1  0
 20 21  1  0
 21 22  1  0
 22 30  1  0
 22 23  2  0
 29 30  2  0
 25 29  1  0
 25 26  1  0
 24 25  2  0
 26 27  2  0
 26 28  1  0
 23 24  1  0
 14 17  1  0
 13 14  1  0
 17 18  1  0
 18 19  1  0
 13 19  1  0
  1 13  1  0
  1  2  2  0
  1  3  1  0
  3  4  1  0
  4  5  1  0
  5  6  1  0
  5 12  1  0
  6  7  1  0
  7  8  1  0
  8  9  1  0
  9 10  1  0
 10 11  1  0
 11 12  1  0
 27 31  1  0
  3 32  1  0
  3 33  1  0
  4 34  1  0
  5 35  1  0
  6 36  1  0
  6 37  1  0
  7 38  1  0
  7 39  1  0
  8 40  1  0
  8 41  1  0
  9 42  1  0
  9 43  1  0
 10 44  1  0
 10 45  1  0
 11 46  1  0
 11 47  1  0
 12 48  1  0
 12 49  1  0
 14 50  1  6
 17 51  1  0
 17 52  1  0
 18 53  1  0
 18 54  1  0
 19 55  1  0
 19 56  1  0
 20 57  1  0
 21 58  1  0
 21 59  1  0
 23 60  1  0
 28 61  1  0
 28 62  1  0
 29 63  1  0
 30 64  1  0
M  END
